377
N         -0.646465    9.698175   -7.293846
C         -1.021449   11.038319   -6.791717
C         -0.043876    8.830252   -6.225969
C         -1.156788    8.034874   -5.501679
O         -2.182946    7.680267   -6.121988
C          0.955044    7.814438   -6.794574
C          2.302779    8.438667   -7.130808
C          3.135917    8.634264   -5.880214
C          3.038651    7.548820   -8.113847
H          0.036393    9.797996   -8.058000
H         -1.482356    9.224967   -7.673245
H          0.494260    9.516854   -5.502362
H          1.113900    7.008313   -6.023541
H          0.523316    7.317153   -7.704204
H          2.148272    9.443006   -7.616462
H         -1.487296   11.615742   -7.634719
H         -0.105763   11.575259   -6.428467
H         -1.759125   10.935256   -5.953407
H          4.040343    7.983076   -8.347800
H          2.461561    7.453718   -9.064983
H          3.186227    6.528989   -7.683564
H          2.629003    9.330771   -5.169997
H          4.131058    9.065239   -6.146505
H          3.298384    7.656513   -5.362976
N         -0.938830    7.727344   -4.185218
C         -1.835706    6.895111   -3.433574
C         -1.464550    5.391495   -3.377355
O         -2.358037    4.581587   -3.034494
C         -2.041163    7.372524   -1.964678
O         -2.923675    8.482781   -2.064165
C         -0.765815    7.731875   -1.264148
C         -0.100117    6.764840   -0.508627
C         -0.253116    9.034762   -1.335942
C          1.074423    7.092972    0.174574
Cl         1.854709    5.903157    1.105947
C          0.914739    9.373793   -0.667227
C          1.587670    8.400509    0.094897
O          2.730044    8.821364    0.726231
H         -0.137353    8.088780   -3.713177
H         -2.855434    6.925295   -3.936029
H         -2.560882    6.534529   -1.408351
H         -0.501391    5.736090   -0.452499
H         -0.790307    9.798329   -1.924089
H          1.324631   10.393461   -0.722201
H         -3.074113    8.804619   -1.164999
H          3.110437    8.073870    1.217896
N         -0.201183    4.980535   -3.705220
C          0.167324    3.589321   -3.772708
C          0.785166    3.105620   -2.434202
O          0.188274    3.349602   -1.361000
C          0.989316    3.257944   -5.024094
C          2.297915    4.013440   -5.152470
O          2.381882    5.240608   -4.884070
N          3.399700    3.348210   -5.600356
H          0.514963    5.636491   -3.938377
H         -0.786481    2.962209   -3.836158
H          1.134280    2.144471   -5.061994
H          0.381311    3.533539   -5.932654
H          3.358745    2.397179   -5.875247
H          4.246982    3.841388   -5.750079
N          1.934218    2.354739   -2.447360
C          2.404581    1.624158   -1.292879
C          2.699318    0.143322   -1.666618
O          3.776473   -0.409250   -1.356133
C          3.625060    2.240861   -0.656191
C          3.638189    2.434385    0.731762
C          4.736305    3.015085    1.355750
C          5.835056    3.415151    0.575205
O          6.888011    3.988711    1.245916
C          5.833320    3.226566   -0.814445
C          4.727331    2.636382   -1.420499
H          2.473789    2.273412   -3.277356
H          1.569625    1.602696   -0.521636
H          2.772905    2.127788    1.342360
H          4.751702    3.168961    2.444379
H          6.697677    3.541562   -1.418074
H          4.735564    2.479330   -2.510923
H          7.563479    4.239266    0.595035
N          1.703178   -0.556264   -2.314611
C          1.978021   -1.797171   -2.991682
C          1.186970   -2.964444   -2.344048
O         -0.030082   -3.133336   -2.588393
C          1.672039   -1.812499   -4.472454
C          2.353681   -2.754025   -5.257603
C          2.131972   -2.832055   -6.627591
C          1.216723   -1.950863   -7.223908
O          0.945397   -1.962879   -8.570810
C          0.528040   -1.003167   -6.450180
C          0.757827   -0.944277   -5.077966
H          0.829948   -0.112278   -2.507590
H          3.091390   -2.002279   -2.887186
H          3.071096   -3.446928   -4.787207
H          2.665891   -3.575271   -7.238758
H         -0.184142   -0.316794   -6.930676
H          0.193283   -0.200115   -4.489539
H          1.478508   -2.662589   -8.981839
N          1.816483   -3.877502   -1.534853
C          3.090776   -3.686451   -0.891829
O          8.362252   -3.951757    2.681657
C          6.175806   -3.179533    2.257120
C          6.807747   -5.386927    1.438024
C          7.130316   -4.205594    2.129860
C          4.609042   -4.492645    0.958447
C          4.925350   -3.328793    1.672099
C          5.542534   -5.526495    0.859840
C          3.261009   -4.659747    0.321912
Cl         7.932841   -6.652167    1.284177
O          4.331860   -4.938536   -2.593885
C          4.289440   -3.933817   -1.848554
O          2.285721   -4.341378    1.303788
H          1.262181   -4.646506   -1.208985
H          3.133371   -2.624871   -0.490417
H          6.438139   -2.266577    2.812995
H          4.170284   -2.530497    1.770219
H          5.287675   -6.453390    0.319041
H          3.133026   -5.721783   -0.035937
H          1.464962   -4.793637    1.058370
H          8.861186   -4.785245    2.732867
N          5.303436   -3.014803   -1.794772
O          8.029722   -2.645805   -7.151923
C          7.291249   -2.092798   -6.133078
C          7.243849   -2.823403   -4.933816
C          6.620393   -0.872294   -6.274615
C          5.893900   -0.392157   -5.175557
O          5.239010    0.804266   -5.353549
C          5.841446   -1.100881   -3.965939
C          6.520606   -2.316835   -3.850940
C          6.521908   -3.108330   -2.561635
C          7.729312   -2.636925   -1.700825
O          7.669363   -1.546800   -1.057305
O          8.755981   -3.377741   -1.643991
H          5.182745   -2.177949   -1.262694
H          7.778120   -3.781469   -4.861629
H          6.657706   -0.302633   -7.213258
H          5.265552   -0.688131   -3.121363
H          6.687471   -4.199178   -2.819006
H          7.992325   -2.047160   -7.915549
H          4.804970    1.038310   -4.516836
N         -9.481437   -7.102831   -0.459721
C         -9.587969   -5.812415    0.256461
C         -8.055602   -7.500874   -0.698918
C         -7.370519   -7.752298    0.665672
O         -7.646144   -8.789742    1.307122
C         -7.932275   -8.772845   -1.540815
C         -8.109769   -8.512023   -3.029642
C         -6.848466   -7.927396   -3.632422
C         -8.472986   -9.804798   -3.733535
H         -9.950000   -7.030718   -1.373094
H         -9.951425   -7.839788    0.082387
H         -7.558493   -6.633689   -1.244687
H         -6.907861   -9.197762   -1.359092
H         -8.669973   -9.543653   -1.190315
H         -8.952102   -7.780402   -3.184961
H         -8.563250   -9.629224   -4.832517
H         -7.686833  -10.578991   -3.561960
H         -9.447255  -10.196607   -3.354115
H        -10.669180   -5.514680    0.298939
H         -8.992349   -5.028121   -0.290589
H         -9.187533   -5.929263    1.301321
H         -6.525009   -7.014073   -3.073202
H         -7.027268   -7.644030   -4.697604
H         -6.017280   -8.672870   -3.600375
N         -6.474734   -6.809363    1.093959
C         -5.911929   -6.876232    2.413417
C         -4.377902   -6.733273    2.501180
O         -3.835623   -6.929986    3.615223
C         -6.564001   -5.913987    3.452920
O         -7.956407   -6.222747    3.424476
C         -6.331838   -4.445734    3.267275
C         -5.582393   -3.762284    4.231093
C         -6.937012   -3.727553    2.228485
C         -5.449497   -2.372602    4.180121
Cl        -4.560153   -1.581014    5.394151
C         -6.810690   -2.345437    2.161148
C         -6.073821   -1.656619    3.139335
O         -5.943844   -0.291945    3.118288
H         -6.325709   -5.979112    0.539547
H         -6.111344   -7.924290    2.817958
H         -6.152395   -6.228471    4.459808
H         -5.099786   -4.323464    5.049325
H         -7.525237   -4.253428    1.455119
H         -7.297965   -1.768706    1.355413
H         -6.400347    0.048649    2.324081
H         -8.416951   -5.513592    3.892375
N         -3.626022   -6.457746    1.386440
C         -2.186423   -6.530997    1.407415
C         -1.487210   -5.262539    0.853920
O         -0.432596   -5.368704    0.184931
C         -1.632582   -7.726959    0.617856
C         -2.236347   -9.064200    0.987337
O         -2.402720   -9.942022    0.101159
N         -2.566222   -9.333145    2.280389
H         -4.056972   -6.300782    0.497412
H         -1.838239   -6.604583    2.487311
H         -1.792464   -7.566458   -0.481248
H         -0.523863   -7.780715    0.795639
H         -2.471722   -8.652203    2.995143
H         -2.960792  -10.211086    2.517655
N         -2.035884   -4.037742    1.137125
C         -1.359819   -2.801592    0.814573
C         -2.370983   -1.831135    0.140441
O         -3.390382   -1.434673    0.746894
C         -0.778448   -2.109254    2.022217
C          0.585477   -1.802077    2.056212
C          1.133393   -1.146340    3.156431
C          0.306635   -0.818013    4.240117
O          0.759490   -0.148579    5.352108
C         -1.056885   -1.160816    4.235070
C         -1.589185   -1.795647    3.120015
H         -2.814225   -3.968236    1.754116
H         -0.517133   -3.047725    0.092347
H          1.244090   -2.092512    1.219057
H          2.204058   -0.891463    3.174789
H         -1.686962   -0.914620    5.103138
H         -2.665624   -2.035825    3.094579
H          1.688718    0.092957    5.207925
N         -2.103071   -1.444041   -1.148284
C         -2.930972   -0.505797   -1.859477
C         -2.162477    0.835645   -2.019515
O         -1.122388    0.882620   -2.718858
C         -3.370947   -0.929816   -3.241683
C         -4.292022   -0.099010   -3.901079
C         -4.758584   -0.415025   -5.169401
C         -4.297858   -1.588875   -5.793172
O         -4.795288   -1.853635   -7.046117
C         -3.381017   -2.427031   -5.146121
C         -2.920429   -2.090900   -3.873266
H         -1.270566   -1.751332   -1.605213
H         -3.875226   -0.350552   -1.249267
H         -4.648559    0.821933   -3.408680
H         -5.476312    0.236014   -5.688672
H         -3.025530   -3.344943   -5.638500
H         -2.191410   -2.763223   -3.389711
H         -4.392523   -2.677464   -7.365501
N         -2.599702    1.980505   -1.407337
C         -3.685170    2.070982   -0.473359
O         -0.012425    2.468865    4.750947
C         -0.437566    3.212588    2.555604
C         -2.296158    2.330292    3.858259
C         -0.929803    2.648110    3.746145
C         -2.656652    3.102656    1.591079
C         -1.300414    3.434811    1.490713
C         -3.153805    2.558920    2.778076
C         -3.597454    3.335865    0.448599
Cl        -2.923974    1.648185    5.283368
O         -5.276419    3.110315   -1.999821
C         -5.073201    2.197579   -1.167392
O         -3.165208    4.485658   -0.262489
H         -2.106729    2.834639   -1.611807
H         -3.668895    1.163272    0.205436
H          0.631073    3.467369    2.482943
H         -0.919299    3.867772    0.549008
H         -4.225430    2.307771    2.864383
H         -4.637135    3.523986    0.851560
H         -3.701734    4.540026   -1.070698
H         -0.345519    1.785447    5.360498
N         -6.042100    1.289823   -0.820474
O        -10.020204    0.690388   -5.076660
C         -9.400471    0.148056   -3.975696
C         -8.740114    1.053189   -3.126342
C         -9.418737   -1.225350   -3.710509
C         -8.753002   -1.688428   -2.563831
O         -8.818704   -3.037329   -2.326876
C         -8.090546   -0.800953   -1.703283
C         -8.096474    0.567120   -1.987995
C         -7.453499    1.544220   -1.031658
C         -8.225291    1.469135    0.314132
O         -7.972793    0.526796    1.129826
O         -9.090158    2.352296    0.581668
H         -5.844959    0.629161   -0.096549
H         -8.745741    2.125742   -3.366443
H         -9.942598   -1.928644   -4.372179
H         -7.592403   -1.171421   -0.793491
H         -7.571342    2.591732   -1.445025
H         -8.196113   -3.263606   -1.605609
H        -10.468402   -0.024370   -5.557193
C         14.960890   -0.468477    3.049407
C         15.554727   -1.516985    4.002965
C         16.833249   -0.970439    4.663684
C         16.577664    0.404202    5.296918
C         17.867261    1.055301    5.805093
C         14.818752    0.878872    3.769293
O         13.630918   -0.837791    2.681453
O         15.864384   -2.665399    3.228490
O         17.187055   -1.931055    5.646482
O         16.061538    1.301834    4.309187
O         18.828179    1.202811    4.779880
H         15.607882   -0.371352    2.136222
H         14.803433   -1.789190    4.795775
H         17.653699   -0.881139    3.897371
H         15.844125    0.305244    6.143788
H         17.624694    2.053331    6.257443
H         18.350351    0.393535    6.572422
H         14.044712    0.805429    4.577629
H         14.540666    1.685019    3.039639
H         18.441032    1.781769    4.109592
H         16.298188   -3.291578    3.824757
H         18.053309   -1.677696    5.991726
C         13.543367   -1.700738    1.558361
C         12.139388   -2.302065    1.523756
C         11.052324   -1.328180    1.034733
N          9.820786   -2.108445    0.649020
C         10.684689   -0.339308    2.144272
C         11.570113   -0.546450   -0.212449
O         11.656910   -1.404161   -1.333698
C         12.925503    0.102577    0.109326
O         13.876646   -0.919586    0.429479
C         13.479842    0.845849   -1.089785
H         14.331677   -2.510013    1.591033
H         11.882910   -2.660518    2.555713
H         12.195179   -3.194735    0.843094
H         10.826510    0.246861   -0.507882
H         12.815897    0.795780    0.989076
H         12.805470    1.700251   -1.335609
H         14.499079    1.236302   -0.857476
H         13.549120    0.166329   -1.972883
H         12.460816   -1.936275   -1.234911
H          9.529547   -2.705337    1.427525
H          9.050326   -1.465341    0.403620
H         10.003722   -2.687665   -0.188388
H         10.015306    0.464668    1.753227
H         10.172497   -0.861042    2.989833
H         11.616136    0.130453    2.545928
C         -6.998302    5.836721    6.759231
C         -7.794950    7.147627    6.848025
C         -7.042497    8.150351    7.741554
C         -5.592575    8.322507    7.267390
C         -4.768364    9.172241    8.239067
C         -5.555637    6.136191    6.331204
O         -7.530640    4.999173    5.732439
O         -9.057586    6.843191    7.419171
O         -7.761055    9.369155    7.632812
O         -4.939854    7.049550    7.226761
O         -4.759608    8.628932    9.543141
H         -7.022669    5.307325    7.749933
H         -7.941512    7.584603    5.821333
H         -7.045641    7.789928    8.808525
H         -5.577074    8.791271    6.245161
H         -3.719767    9.268638    7.851078
H         -5.235112   10.187864    8.343442
H         -4.926674    5.209356    6.398616
H         -5.537993    6.540032    5.285129
H         -9.516805    7.686542    7.537275
H         -7.431357    9.953549    8.328164
H         -4.361446    7.750222    9.482237
C         -8.589375    4.150723    6.150525
C         -9.267497    3.580242    4.905969
C         -8.477338    2.451390    4.222328
N         -9.388732    1.681397    3.297999
C         -7.320295    3.027544    3.400877
C         -7.914119    1.471825    5.298991
O         -8.964319    0.720050    5.874652
C         -7.130415    2.263321    6.355932
O         -8.012844    3.185734    7.006044
C         -6.582430    1.352928    7.436568
H         -9.331484    4.702356    6.800639
H        -10.272789    3.204632    5.240485
H         -9.429078    4.417078    4.176158
H         -7.240078    0.710113    4.807698
H         -6.297522    2.836049    5.860740
H         -6.108601    1.961325    8.243134
H         -5.815616    0.674377    6.990958
H         -7.401433    0.739628    7.883141
H         -9.403078    1.283110    6.530358
H         -9.755265    2.302601    2.561517
H        -10.150824    1.263508    3.833744
H         -8.845405    0.937541    2.822727
H         -7.703281    3.560470    2.494320
H         -6.749024    3.759230    4.022359
H         -6.632278    2.210450    3.067603
C         -5.863610   -4.861980   -1.664833
O         -4.974045   -5.668489   -1.244518
O         -6.860764   -4.598359   -0.909616
C         -5.756531   -4.247127   -3.033947
H         -4.768093   -3.740262   -3.154976
H         -6.572328   -3.502170   -3.193385
H         -5.840527   -5.046729   -3.809146

